*HEADING
ThreadROM CalculiX linear-elastic smoke test
**
** Consistent unit system: metre, newton, pascal
**
*NODE
1, 0.000, 0.000, 0.000
2, 0.010, 0.000, 0.000
3, 0.010, 0.010, 0.000
4, 0.000, 0.010, 0.000
5, 0.000, 0.000, 0.010
6, 0.010, 0.000, 0.010
7, 0.010, 0.010, 0.010
8, 0.000, 0.010, 0.010
**
*ELEMENT, TYPE=C3D8, ELSET=EALL
1, 1, 2, 3, 4, 5, 6, 7, 8
**
*NSET, NSET=FIXED
1, 2, 3, 4
**
*NSET, NSET=LOADED
5, 6, 7, 8
**
*MATERIAL, NAME=STEEL
*ELASTIC
2.10E11, 0.30
**
*SOLID SECTION, ELSET=EALL, MATERIAL=STEEL
**
*BOUNDARY
FIXED, 1, 3, 0.0
**
*STEP
*STATIC
**
*CLOAD
5, 3, 250.0
6, 3, 250.0
7, 3, 250.0
8, 3, 250.0
**
*NODE PRINT, NSET=LOADED
U
**
*EL PRINT, ELSET=EALL
S
**
*NODE FILE
U
**
*EL FILE
S
E
**
*END STEP