*HEADING
ThreadROM contact-free CalculiX pretension coupon - negative reference force
**
** Units: millimetre, newton, megapascal
** Coupon: 10 x 10 x 40 mm, four C3D8 elements
** Pretension cut: z = 20 mm, top face S2 of element 2
**
*NODE
1,   0.0,  0.0,  0.0
2,  10.0,  0.0,  0.0
3,  10.0, 10.0,  0.0
4,   0.0, 10.0,  0.0
5,   0.0,  0.0, 10.0
6,  10.0,  0.0, 10.0
7,  10.0, 10.0, 10.0
8,   0.0, 10.0, 10.0
9,   0.0,  0.0, 20.0
10, 10.0,  0.0, 20.0
11, 10.0, 10.0, 20.0
12,  0.0, 10.0, 20.0
13,  0.0,  0.0, 30.0
14, 10.0,  0.0, 30.0
15, 10.0, 10.0, 30.0
16,  0.0, 10.0, 30.0
17,  0.0,  0.0, 40.0
18, 10.0,  0.0, 40.0
19, 10.0, 10.0, 40.0
20,  0.0, 10.0, 40.0
21,  5.0,  5.0, 20.0
**
*ELEMENT, TYPE=C3D8, ELSET=EALL
1, 1, 2, 3, 4, 5, 6, 7, 8
2, 5, 6, 7, 8, 9, 10, 11, 12
3, 9, 10, 11, 12, 13, 14, 15, 16
4, 13, 14, 15, 16, 17, 18, 19, 20
**
*NSET, NSET=BOTTOM
1, 2, 3, 4
*NSET, NSET=TOP
17, 18, 19, 20
*NSET, NSET=CUT
9, 10, 11, 12
*NSET, NSET=PRETENSION_REFERENCE
21
**
*SURFACE, TYPE=ELEMENT, NAME=PRETENSION_CUT
2, S2
**
*MATERIAL, NAME=STEEL
*ELASTIC
2.100000000000E+05, 3.000000000000E-01
**
*SOLID SECTION, ELSET=EALL, MATERIAL=STEEL
**
*PRE-TENSION SECTION, SURFACE=PRETENSION_CUT, NODE=21
0.000000000000E+00, 0.000000000000E+00, 1.000000000000E+00
**
*BOUNDARY
BOTTOM, 1, 3, 0.0
TOP, 3, 3, 0.0
**
*STEP, NLGEOM=YES, INC=20
*STATIC
1.000000000000E+00, 1.000000000000E+00
**
*CLOAD
21, 1, -1.000000000000E+03
**
*NODE PRINT, NSET=PRETENSION_REFERENCE
U
RF
*NODE PRINT, NSET=BOTTOM, TOTALS=ONLY
RF
*NODE PRINT, NSET=TOP, TOTALS=ONLY
RF
*NODE PRINT, NSET=CUT
U
*EL PRINT, ELSET=EALL
S
**
*NODE FILE
U, RF
*EL FILE
S, E
**
*END STEP
